/*--------------------------------*- C++ -*----------------------------------*\
| =========                 |                                                 |
| \\      /  F ield         | OpenFOAM: The Open Source CFD Toolbox           |
|  \\    /   O peration     | Version:  v2012                                 |
|   \\  /    A nd           | Website:  www.openfoam.com                      |
|    \\/     M anipulation  |                                                 |
\*---------------------------------------------------------------------------*/
FoamFile
{
    version     2.0;
    format      ascii;
    class       volScalarField;
    object      T;
}
// * * * * * * * * * * * * * * * * * * * * * * * * * * * * * * * * * * * * * //

dimensions      [0 0 0 1 0 0 0];

internalField   uniform 278.15;

boundaryField
{
    inlet
    {
        type            exprFixedValue;

        functions<scalar>
        {
            probeTemperature
            {
/*
                type        sample;
                field       T;
                position    (0.025 0.025 0.005);
*/
                type                    functionObjectValue;
                functionObject          probeTemperature;
                functionObjectResult    average(T);
                defaultValue            278.15; 
            }
        }

        storedVariables
        (
            {
                name            I;
                initialValue    "0.0";
                value
                {
                    resultType      scalar;
                    valueType       scalar;
                    isSingleValue   true;
                    value           0.0;
                }
            }
            {
                name            dTOld;
                initialValue    "15.0";
                value
                {
                    resultType      scalar;
                    valueType       scalar;
                    isSingleValue   true;
                    value           15.0;
                }
            }
        );

        variables
        (
            "KP = 1.0"
            "KI = 1.0"
            "KD = 1.0"
            "dT = 293.15 - fn:probeTemperature()"
            "I = I + dT*deltaT()"
            "D = (dT - dTOld)/deltaT()"
            "dTOld = dT"
        );

        valueExpr       "KP*dT + KI*I + KD*D + 278.15";

        value           uniform 278.15;
    }

    outlet
    {
        type            zeroGradient;
    }

    wall
    {
        type            externalWallHeatFluxTemperature;
        mode            coefficient;
        Ta              uniform 278.15;
        h               uniform 10;
        kappaMethod     fluidThermo;
        value           uniform 278.15;
    }

    frontAndBack
    {
        type            empty;
    }
}

// ************************************************************************* //
